
 OpenBabel11011613193D

 52 56  0  0  1  0  0  0  0  0999 V2000
   -3.2502    0.4479    0.0192 N   0  0  0  0  0  0  0  0  0  0  0  0
   -1.3203    2.5317    0.7210 N   0  0  0  0  0  0  0  0  0  0  0  0
   -1.3653   -1.5991    0.9136 N   0  0  0  0  0  0  0  0  0  0  0  0
    0.5668    0.4843    1.6101 N   0  0  0  0  0  0  0  0  0  0  0  0
   -4.0286   -0.6792   -0.2470 C   0  0  0  0  0  0  0  0  0  0  0  0
   -5.3126   -0.2556   -0.7913 C   0  0  0  0  0  0  0  0  0  0  0  0
   -5.2969    1.1177   -0.8572 C   0  0  0  0  0  0  0  0  0  0  0  0
   -4.0072    1.5625   -0.3444 C   0  0  0  0  0  0  0  0  0  0  0  0
   -6.1142   -0.9199   -1.0784 H   0  0  0  0  0  0  0  0  0  0  0  0
   -6.0786    1.7692   -1.2187 H   0  0  0  0  0  0  0  0  0  0  0  0
   -3.5974    2.9144   -0.2512 C   0  0  0  0  0  0  0  0  0  0  0  0
   -3.6513   -2.0250   -0.0198 C   0  0  0  0  0  0  0  0  0  0  0  0
   -1.9256    4.7429    0.3348 C   0  0  0  0  0  0  0  0  0  0  0  0
   -0.6567    4.7552    0.8638 C   0  0  0  0  0  0  0  0  0  0  0  0
   -0.2756    3.3703    1.1118 C   0  0  0  0  0  0  0  0  0  0  0  0
   -2.3436    3.3499    0.2410 C   0  0  0  0  0  0  0  0  0  0  0  0
   -2.5246    5.5915    0.0389 H   0  0  0  0  0  0  0  0  0  0  0  0
   -0.0344    5.6150    1.0628 H   0  0  0  0  0  0  0  0  0  0  0  0
    0.9667    2.9574    1.6522 C   0  0  0  0  0  0  0  0  0  0  0  0
   -0.3354   -2.4184    1.3777 C   0  0  0  0  0  0  0  0  0  0  0  0
   -0.7488   -3.8120    1.2725 C   0  0  0  0  0  0  0  0  0  0  0  0
   -2.0165   -3.8243    0.7406 C   0  0  0  0  0  0  0  0  0  0  0  0
   -2.4093   -2.4377    0.5207 C   0  0  0  0  0  0  0  0  0  0  0  0
   -0.1496   -4.6606    1.5676 H   0  0  0  0  0  0  0  0  0  0  0  0
   -2.6279   -4.6853    0.5147 H   0  0  0  0  0  0  0  0  0  0  0  0
    2.6175    1.1890    2.4488 C   0  0  0  0  0  0  0  0  0  0  0  0
    2.6019   -0.1842    2.5138 C   0  0  0  0  0  0  0  0  0  0  0  0
    1.3158   -0.6294    1.9925 C   0  0  0  0  0  0  0  0  0  0  0  0
    1.3439    1.6117    1.8795 C   0  0  0  0  0  0  0  0  0  0  0  0
    3.4091    1.8543    2.7601 H   0  0  0  0  0  0  0  0  0  0  0  0
    3.3837   -0.8357    2.8754 H   0  0  0  0  0  0  0  0  0  0  0  0
    0.9120   -1.9820    1.8853 C   0  0  0  0  0  0  0  0  0  0  0  0
   -4.2633    3.6372   -0.5660 H   0  0  0  0  0  0  0  0  0  0  0  0
    1.5774   -2.7048    2.2012 H   0  0  0  0  0  0  0  0  0  0  0  0
    2.0570    4.0738    2.0375 C   0  0  0  0  0  0  0  0  0  0  0  0
    2.1390    5.3564    2.5144 C   0  0  0  0  0  0  0  0  0  0  0  0
    3.4974    6.0030    2.5824 C   0  0  0  0  0  0  0  0  0  0  0  0
    1.0294    6.1474    2.9962 C   0  0  0  0  0  0  0  0  0  0  0  0
    0.1708    6.8155    3.3919 N   0  0  0  0  0  0  0  0  0  0  0  0
    4.5112    5.3204    2.5459 O   0  0  0  0  0  0  0  0  0  0  0  0
    3.6288    7.3481    2.6111 O   0  0  0  0  0  0  0  0  0  0  0  0
    2.8796    7.9424    2.4718 H   0  0  0  0  0  0  0  0  0  0  0  0
    3.0327    3.6770    1.8046 H   0  0  0  0  0  0  0  0  0  0  0  0
   -4.4267   -2.9919   -0.6537 C   0  0  0  0  0  0  0  0  0  0  0  0
   -6.3531   -4.8693   -2.6930 O   0  0  0  0  0  0  0  0  0  0  0  0
   -5.4362   -4.1609   -2.3369 C   0  0  0  0  0  0  0  0  0  0  0  0
   -4.7928   -3.3706   -3.2704 O   0  0  0  0  0  0  0  0  0  0  0  0
   -5.0725   -4.0700   -0.8903 C   0  0  1  0  0  0  0  0  0  0  0  0
   -4.0237   -2.7776   -3.1159 H   0  0  0  0  0  0  0  0  0  0  0  0
   -4.8669   -5.1944    0.0097 C   0  0  0  0  0  0  0  0  0  0  0  0
   -4.6405   -6.0114    0.8035 N   0  0  0  0  0  0  0  0  0  0  0  0
   -3.5709   -3.2867   -1.2601 H   0  0  0  0  0  0  0  0  0  0  0  0
  2 15  1  0  0  0  0
  3 20  1  0  0  0  0
  4 29  1  0  0  0  0
  4 28  1  0  0  0  0
  5 12  2  0  0  0  0
  5  1  1  0  0  0  0
  6  5  1  0  0  0  0
  7  6  2  0  0  0  0
  7  8  1  0  0  0  0
  8 11  2  0  0  0  0
  8  1  1  0  0  0  0
  9  6  1  0  0  0  0
 10  7  1  0  0  0  0
 11 16  1  0  0  0  0
 12 23  1  0  0  0  0
 13 14  2  0  0  0  0
 14 18  1  0  0  0  0
 14 15  1  0  0  0  0
 15 19  2  0  0  0  0
 16 13  1  0  0  0  0
 16  2  2  0  0  0  0
 17 13  1  0  0  0  0
 19 29  1  0  0  0  0
 19 35  1  0  0  0  0
 20 32  2  0  0  0  0
 21 20  1  0  0  0  0
 21 24  1  0  0  0  0
 22 21  2  0  0  0  0
 23 22  1  0  0  0  0
 23  3  2  0  0  0  0
 25 22  1  0  0  0  0
 26 27  1  0  0  0  0
 26 30  1  0  0  0  0
 27 31  1  0  0  0  0
 28 27  2  0  0  0  0
 29 26  2  0  0  0  0
 32 28  1  0  0  0  0
 32 34  1  0  0  0  0
 33 11  1  0  0  0  0
 35 36  2  0  0  0  0
 36 37  1  0  0  0  0
 36 38  1  0  0  0  0
 37 41  1  0  0  0  0
 38 39  3  0  0  0  0
 40 37  2  0  0  0  0
 42 41  1  0  0  0  0
 43 35  1  0  0  0  0
 44 12  1  0  0  0  0
 45 46  2  0  0  0  0
 47 49  1  0  0  0  0
 47 46  1  0  0  0  0
 48 46  1  6  0  0  0
 48 44  1  0  0  0  0
 48 50  1  0  0  0  0
 50 51  3  0  0  0  0
 52 44  1  0  0  0  0
M  CHG  2   5  -1   6  -1
M  END
