
 OpenBabel11141610253D

 52 56  0  0  1  0  0  0  0  0999 V2000
   -3.5101   -8.3780   -3.9694 N   0  0  0  0  0  0  0  0  0  0  0  0
   -1.8725   -6.3523   -2.6621 N   0  0  0  0  0  0  0  0  0  0  0  0
   -5.7484   -6.5415   -4.1224 N   0  0  0  0  0  0  0  0  0  0  0  0
   -4.1062   -4.5081   -2.8334 N   0  0  0  0  0  0  0  0  0  0  0  0
   -4.4773   -9.2590   -4.4925 C   0  5  0  0  0  0  0  0  0  0  0  0
   -3.9022  -10.6134   -4.6037 C   0  5  0  0  0  0  0  0  0  0  0  0
   -2.6079  -10.5504   -4.1345 C   0  0  0  0  0  0  0  0  0  0  0  0
   -2.3748   -9.1682   -3.6975 C   0  0  0  0  0  0  0  0  0  0  0  0
   -4.3808  -11.5025   -4.9677 H   0  0  0  0  0  0  0  0  0  0  0  0
   -1.9122  -11.3829   -4.1034 H   0  0  0  0  0  0  0  0  0  0  0  0
   -1.2575   -8.7329   -3.1110 C   0  0  0  0  0  0  0  0  0  0  0  0
   -5.7491   -8.9198   -4.7676 C   0  0  0  0  0  0  0  0  0  0  0  0
    0.2057   -6.9596   -1.9713 C   0  0  0  0  0  0  0  0  0  0  0  0
    0.0712   -5.6565   -1.5942 C   0  0  0  0  0  0  0  0  0  0  0  0
   -1.2435   -5.2229   -2.0495 C   0  0  0  0  0  0  0  0  0  0  0  0
   -1.0378   -7.3457   -2.6221 C   0  0  0  0  0  0  0  0  0  0  0  0
    1.0741   -7.5774   -1.7877 H   0  0  0  0  0  0  0  0  0  0  0  0
    0.8152   -5.0752   -1.0826 H   0  0  0  0  0  0  0  0  0  0  0  0
   -1.7941   -3.9794   -1.8571 C   0  0  0  0  0  0  0  0  0  0  0  0
   -6.6934   -5.4888   -4.1042 C   0  0  0  0  0  0  0  0  0  0  0  0
   -7.9462   -5.9560   -4.6721 C   0  0  0  0  0  0  0  0  0  0  0  0
   -7.7290   -7.2571   -4.9936 C   0  0  0  0  0  0  0  0  0  0  0  0
   -6.3303   -7.5661   -4.6305 C   0  0  0  0  0  0  0  0  0  0  0  0
   -8.8780   -5.4244   -4.8132 H   0  0  0  0  0  0  0  0  0  0  0  0
   -8.4367   -7.9386   -5.4262 H   0  0  0  0  0  0  0  0  0  0  0  0
   -3.8099   -2.4067   -2.0917 C   0  0  0  0  0  0  0  0  0  0  0  0
   -5.0832   -2.4955   -2.5732 C   0  0  0  0  0  0  0  0  0  0  0  0
   -5.2415   -3.7846   -3.0231 C   0  0  0  0  0  0  0  0  0  0  0  0
   -3.2193   -3.6595   -2.2561 C   0  0  0  0  0  0  0  0  0  0  0  0
   -3.3504   -1.5253   -1.6662 H   0  0  0  0  0  0  0  0  0  0  0  0
   -5.8140   -1.6941   -2.5981 H   0  0  0  0  0  0  0  0  0  0  0  0
   -6.4998   -4.2599   -3.6289 C   0  0  0  0  0  0  0  0  0  0  0  0
   -0.4495   -9.4494   -2.9641 H   0  0  0  0  0  0  0  0  0  0  0  0
   -7.3309   -3.5605   -3.6910 H   0  0  0  0  0  0  0  0  0  0  0  0
   -0.9571   -2.9268   -1.2570 C   0  0  0  0  0  0  0  0  0  0  0  0
   -0.6784   -2.7520    0.0486 C   0  0  0  0  0  0  0  0  0  0  0  0
    0.1812   -1.5979    0.3845 C   0  0  0  0  0  0  0  0  0  0  0  0
   -1.1644   -3.5908    1.0883 C   0  0  0  0  0  0  0  0  0  0  0  0
   -1.5414   -4.2440    1.9709 N   0  0  0  0  0  0  0  0  0  0  0  0
    0.5787   -0.7416   -0.3880 O   0  0  0  0  0  0  0  0  0  0  0  0
    0.5289   -1.5515    1.6817 O   0  0  0  0  0  0  0  0  0  0  0  0
    1.0952   -0.7554    1.7591 H   0  0  0  0  0  0  0  0  0  0  0  0
   -0.5771   -2.2264   -2.0021 H   0  0  0  0  0  0  0  0  0  0  0  0
   -6.6509   -9.9537   -5.2804 C   0  0  0  0  0  0  0  0  0  0  0  0
   -8.6855  -11.6546   -6.2193 O   0  0  0  0  0  0  0  0  0  0  0  0
   -7.6350  -11.5107   -6.8294 C   0  0  0  0  0  0  0  0  0  0  0  0
   -7.2897  -12.3422   -7.8415 O   0  0  0  0  0  0  0  0  0  0  0  0
   -6.6508  -10.4445   -6.5324 C   0  0  0  0  0  0  0  0  0  0  0  0
   -6.4120  -12.1945   -8.2490 H   0  0  0  0  0  0  0  0  0  0  0  0
   -5.7890   -9.9986   -7.5684 C   0  0  0  0  0  0  0  0  0  0  0  0
   -5.1790   -9.7833   -8.5328 N   0  0  0  0  0  0  0  0  0  0  0  0
   -7.3527  -10.3209   -4.5326 H   0  0  0  0  0  0  0  0  0  0  0  0
  2 15  1  0  0  0  0
  3 20  1  0  0  0  0
  4 29  1  0  0  0  0
  4 28  1  0  0  0  0
  5 12  2  0  0  0  0
  5  1  1  0  0  0  0
  6  5  1  0  0  0  0
  7  6  2  0  0  0  0
  7  8  1  0  0  0  0
  8 11  2  0  0  0  0
  8  1  1  0  0  0  0
  9  6  1  0  0  0  0
 10  7  1  0  0  0  0
 11 16  1  0  0  0  0
 12 23  1  0  0  0  0
 13 14  2  0  0  0  0
 14 18  1  0  0  0  0
 14 15  1  0  0  0  0
 15 19  2  0  0  0  0
 16 13  1  0  0  0  0
 16  2  2  0  0  0  0
 17 13  1  0  0  0  0
 19 29  1  0  0  0  0
 19 35  1  0  0  0  0
 20 32  2  0  0  0  0
 21 20  1  0  0  0  0
 21 24  1  0  0  0  0
 22 21  2  0  0  0  0
 23 22  1  0  0  0  0
 23  3  2  0  0  0  0
 25 22  1  0  0  0  0
 26 27  1  0  0  0  0
 26 30  1  0  0  0  0
 27 31  1  0  0  0  0
 28 27  2  0  0  0  0
 29 26  2  0  0  0  0
 32 28  1  0  0  0  0
 32 34  1  0  0  0  0
 33 11  1  0  0  0  0
 35 36  2  0  0  0  0
 36 37  1  0  0  0  0
 36 38  1  0  0  0  0
 37 41  1  0  0  0  0
 38 39  3  0  0  0  0
 40 37  2  0  0  0  0
 42 41  1  0  0  0  0
 43 35  1  0  0  0  0
 44 12  1  0  0  0  0
 44 52  1  0  0  0  0
 45 46  2  0  0  0  0
 47 49  1  0  0  0  0
 47 46  1  0  0  0  0
 48 46  1  0  0  0  0
 48 44  2  0  0  0  0
 48 50  1  0  0  0  0
 50 51  3  0  0  0  0
M  CHG  2   5  -1   6  -1
M  END
