
 OpenBabel10261612413D

 52 55  0  0  0  0  0  0  0  0999 V2000
   -2.0454    8.0652   -5.9281 H   0  0  0  0  0  0  0  0  0  0  0  0
   -1.6570    7.4665   -5.1145 C   0  0  0  0  0  0  0  0  0  0  0  0
   -3.5006    6.3968   -4.8111 H   0  0  0  0  0  0  0  0  0  0  0  0
   -2.4770    6.5262   -4.4844 C   0  0  0  0  0  0  0  0  0  0  0  0
   -0.3350    7.6325   -4.6938 C   0  0  0  0  0  0  0  0  0  0  0  0
    0.3005    8.3607   -5.1812 H   0  0  0  0  0  0  0  0  0  0  0  0
   -1.9749    5.7498   -3.4356 C   0  0  0  0  0  0  0  0  0  0  0  0
   -4.8527    7.8899   -0.3768 H   0  0  0  0  0  0  0  0  0  0  0  0
    0.1692    6.8544   -3.6480 C   0  0  0  0  0  0  0  0  0  0  0  0
   -6.5307    6.1443   -0.8870 H   0  0  0  0  0  0  0  0  0  0  0  0
   -2.6128    5.0301   -2.9592 H   0  0  0  0  0  0  0  0  0  0  0  0
   -4.6043    6.8450   -0.2420 C   0  0  0  0  0  0  0  0  0  0  0  0
   -5.5487    5.8647   -0.5280 C   0  0  0  0  0  0  0  0  0  0  0  0
   -0.6499    5.9035   -3.0147 C   0  0  0  0  0  0  0  0  0  0  0  0
    1.1970    6.9846   -3.3341 H   0  0  0  0  0  0  0  0  0  0  0  0
   -3.3381    6.4834    0.2238 C   0  0  0  0  0  0  0  0  0  0  0  0
   -2.6396    7.2730    0.4397 H   0  0  0  0  0  0  0  0  0  0  0  0
   -5.2242    4.5230   -0.3518 C   0  0  0  0  0  0  0  0  0  0  0  0
   -0.8012    6.9004   -0.6216 H   0  0  0  0  0  0  0  0  0  0  0  0
   -5.9562    3.7583   -0.5786 H   0  0  0  0  0  0  0  0  0  0  0  0
   -2.9868    5.1294    0.4157 C   0  0  0  0  0  0  0  0  0  0  0  0
    0.0315    4.8444   -1.6537 P   0  0  0  0  0  0  0  0  0  0  0  0
   -3.9565    4.1580    0.1149 C   0  0  0  0  0  0  0  0  0  0  0  0
    0.1244    6.3181   -0.4725 C   0  0  0  0  0  0  0  0  0  0  0  0
   -0.0174    3.4723   -4.3679 H   0  0  0  0  0  0  0  0  0  0  0  0
   -1.2617    4.7407    1.0937 P   0  0  0  0  0  0  0  0  0  0  0  0
    0.9535    7.0018   -0.7491 H   0  0  0  0  0  0  0  0  0  0  0  0
   -3.7627    3.1215    0.2156 H   0  0  0  0  0  0  0  0  0  0  0  0
    1.0120    3.5508   -4.0429 C   0  0  0  0  0  0  0  0  0  0  0  0
    1.3272    4.1193   -2.7915 C   0  0  0  0  0  0  0  0  0  0  0  0
    0.1609    5.9125    0.9956 C   0  0  0  0  0  0  0  0  0  0  0  0
    0.0213    6.8314    1.5982 H   0  0  0  0  0  0  0  0  0  0  0  0
    2.0295    3.0798   -4.8794 C   0  0  0  0  0  0  0  0  0  0  0  0
    2.6763    4.2702   -2.4396 C   0  0  0  0  0  0  0  0  0  0  0  0
   -2.0508    7.2742    2.5231 H   0  0  0  0  0  0  0  0  0  0  0  0
    1.7819    2.6303   -5.8321 H   0  0  0  0  0  0  0  0  0  0  0  0
   -1.7344    5.1548    2.8753 C   0  0  0  0  0  0  0  0  0  0  0  0
    1.1056    5.4483    1.3019 H   0  0  0  0  0  0  0  0  0  0  0  0
    2.9408    4.7614   -1.5138 H   0  0  0  0  0  0  0  0  0  0  0  0
   -2.0668    6.4759    3.2432 C   0  0  0  0  0  0  0  0  0  0  0  0
    3.3669    3.1987   -4.4937 C   0  0  0  0  0  0  0  0  0  0  0  0
    3.6897    3.8033   -3.2785 C   0  0  0  0  0  0  0  0  0  0  0  0
   -1.7652    4.1658    3.8744 C   0  0  0  0  0  0  0  0  0  0  0  0
   -1.5286    3.1504    3.6542 H   0  0  0  0  0  0  0  0  0  0  0  0
   -2.4095    6.7873    4.5632 C   0  0  0  0  0  0  0  0  0  0  0  0
    4.1539    2.8389   -5.1435 H   0  0  0  0  0  0  0  0  0  0  0  0
    4.7264    3.9178   -2.9882 H   0  0  0  0  0  0  0  0  0  0  0  0
   -2.6565    7.8060    4.8316 H   0  0  0  0  0  0  0  0  0  0  0  0
   -2.1085    4.4799    5.1910 C   0  0  0  0  0  0  0  0  0  0  0  0
   -2.4297    5.7897    5.5363 C   0  0  0  0  0  0  0  0  0  0  0  0
   -2.1235    3.7023    5.9443 H   0  0  0  0  0  0  0  0  0  0  0  0
   -2.6931    6.0314    6.5580 H   0  0  0  0  0  0  0  0  0  0  0  0
  2  1  1  0  0  0  0
  4  2  2  0  0  0  0
  4  3  1  0  0  0  0
  5  2  1  0  0  0  0
  5  6  1  0  0  0  0
  7  4  1  0  0  0  0
  7 11  1  0  0  0  0
  9  5  2  0  0  0  0
  9 15  1  0  0  0  0
 12 13  2  0  0  0  0
 12  8  1  0  0  0  0
 13 10  1  0  0  0  0
 14  7  2  0  0  0  0
 14  9  1  0  0  0  0
 16 12  1  0  0  0  0
 16 17  1  0  0  0  0
 18 13  1  0  0  0  0
 18 20  1  0  0  0  0
 21 16  2  0  0  0  0
 21 23  1  0  0  0  0
 22 24  1  0  0  0  0
 22 30  1  0  0  0  0
 22 14  1  0  0  0  0
 23 18  2  0  0  0  0
 23 28  1  0  0  0  0
 24 31  1  0  0  0  0
 24 27  1  0  0  0  0
 24 19  1  0  0  0  0
 26 31  1  0  0  0  0
 26 21  1  0  0  0  0
 26 37  1  0  0  0  0
 29 33  2  0  0  0  0
 29 25  1  0  0  0  0
 30 34  2  0  0  0  0
 30 29  1  0  0  0  0
 31 38  1  0  0  0  0
 31 32  1  0  0  0  0
 33 41  1  0  0  0  0
 33 36  1  0  0  0  0
 34 42  1  0  0  0  0
 34 39  1  0  0  0  0
 37 43  2  0  0  0  0
 37 40  1  0  0  0  0
 40 45  2  0  0  0  0
 40 35  1  0  0  0  0
 41 46  1  0  0  0  0
 42 41  2  0  0  0  0
 42 47  1  0  0  0  0
 43 49  1  0  0  0  0
 43 44  1  0  0  0  0
 45 50  1  0  0  0  0
 45 48  1  0  0  0  0
 49 50  2  0  0  0  0
 49 51  1  0  0  0  0
 50 52  1  0  0  0  0
M  END
