
 OpenBabel07231507543D

  3  2  0  0  0  0  0  0  0  0999 V2000
   -5.0398    1.4728    0.0000 S   0  0  0  0  0  0  0  0  0  0  0  0
   -3.2771    1.5103   -0.0000 C   0  0  0  0  0  0  0  0  0  0  0  0
   -2.1202    1.5344   -0.0000 N   0  0  0  0  0  0  0  0  0  0  0  0
  1  2  1  0  0  0  0
  2  3  3  0  0  0  0
M  END
