
 OpenBabel07111714263D

  7  6  0  0  0  0  0  0  0  0999 V2000
   -1.8756   -0.5212   -0.8511 N   0  5  0  0  0  0  0  0  0  0  0  0
   -3.2858   -1.4397    0.8148 N   0  0  0  0  0  0  0  0  0  0  0  0
   -1.8738   -1.8685   -0.0262 C   0  0  0  0  0  0  0  0  0  0  0  0
   -1.0446   -0.5487   -1.4839 H   0  0  0  0  0  0  0  0  0  0  0  0
   -0.9975   -1.9349    0.6518 H   0  0  0  0  0  0  0  0  0  0  0  0
   -3.5012   -2.2273    1.4663 H   0  0  0  0  0  0  0  0  0  0  0  0
   -2.0380   -2.7511   -0.6790 H   0  0  0  0  0  0  0  0  0  0  0  0
  1  3  1  0  0  0  0
  1  4  1  0  0  0  0
  2  6  1  0  0  0  0
  3  2  1  0  0  0  0
  3  5  1  0  0  0  0
  7  3  1  0  0  0  0
M  CHG  1   1  -1
M  END
