
 OpenBabel11041702173D

  7  6  0  0  0  0  0  0  0  0999 V2000
   -0.8843   -2.2608    1.9461 H   0  0  0  0  0  0  0  0  0  0  0  0
    0.0000    0.0000    2.0719 N   0  6  0  0  0  0  0  0  0  0  0  0
   -0.0034   -1.7602    1.4921 C   0  0  0  0  0  0  0  0  0  0  0  0
    0.0000   -2.0719    0.0000 N   0  5  0  0  0  0  0  0  0  0  0  0
    0.8868   -2.2526    1.9387 H   0  0  0  0  0  0  0  0  0  0  0  0
   -0.2993   -2.4207   -1.0168 H   0  0  0  0  0  0  0  0  0  0  0  0
   -0.1609    0.7688    2.7543 H   0  0  0  0  0  0  0  0  0  0  0  0
  3  5  1  0  0  0  0
  3  1  1  0  0  0  0
  3  2  1  0  0  0  0
  4  3  1  0  0  0  0
  6  4  1  0  0  0  0
  7  2  1  0  0  0  0
M  CHG  2   2  -2   4  -1
M  END
