
 OpenBabel11071614543D

 46 48  0  0  0  0  0  0  0  0999 V2000
   -4.6129    5.1786    6.9556 C   0  0  0  0  0  0  0  0  0  0  0  0
   -3.8135    4.5221    6.5828 H   0  0  0  0  0  0  0  0  0  0  0  0
   -5.2554    5.4629    6.0941 H   0  0  0  0  0  0  0  0  0  0  0  0
   -5.5031    4.4280    7.9421 C   0  0  0  0  0  0  0  0  0  0  0  0
   -6.2692    5.0908    8.3495 H   0  0  0  0  0  0  0  0  0  0  0  0
   -6.0026    3.5940    7.4325 H   0  0  0  0  0  0  0  0  0  0  0  0
   -5.6049    3.1158   10.0307 C   0  0  0  0  0  0  0  0  0  0  0  0
   -4.7802    2.7659   11.2567 C   0  0  0  0  0  0  0  0  0  0  0  0
   -3.1958    3.7676   12.8703 C   0  0  0  0  0  0  0  0  0  0  0  0
   -2.4092    3.1258   12.4663 H   0  0  0  0  0  0  0  0  0  0  0  0
   -3.7075    3.2163   13.6699 H   0  0  0  0  0  0  0  0  0  0  0  0
   -4.1715    4.0173   11.7783 N   0  0  0  0  0  0  0  0  0  0  0  0
   -4.9205    4.6127   12.1413 H   0  0  0  0  0  0  0  0  0  0  0  0
   -4.7367    3.8776    9.0932 N   0  0  0  0  0  0  0  0  0  0  0  0
   -4.0181    3.2439    8.7311 H   0  0  0  0  0  0  0  0  0  0  0  0
   -2.6088    5.0620   13.4276 C   0  0  0  0  0  0  0  0  0  0  0  0
   -3.4082    5.7184   13.8005 H   0  0  0  0  0  0  0  0  0  0  0  0
   -1.9990    4.8045   14.3007 H   0  0  0  0  0  0  0  0  0  0  0  0
   -1.7186    5.8125   12.4411 C   0  0  0  0  0  0  0  0  0  0  0  0
   -0.9525    5.1496   12.0338 H   0  0  0  0  0  0  0  0  0  0  0  0
   -1.2191    6.6464   12.9508 H   0  0  0  0  0  0  0  0  0  0  0  0
   -1.6167    7.1248   10.3525 C   0  0  0  0  0  0  0  0  0  0  0  0
   -2.4416    7.4746    9.1265 C   0  0  0  0  0  0  0  0  0  0  0  0
   -4.0261    6.4729    7.5130 C   0  0  0  0  0  0  0  0  0  0  0  0
   -4.8126    7.1147    7.9170 H   0  0  0  0  0  0  0  0  0  0  0  0
   -3.5141    7.0242    6.7133 H   0  0  0  0  0  0  0  0  0  0  0  0
   -3.0505    6.2229    8.6050 N   0  0  0  0  0  0  0  0  0  0  0  0
   -2.3011    5.6277    8.2419 H   0  0  0  0  0  0  0  0  0  0  0  0
   -2.4852    6.3628   11.2901 N   0  0  0  0  0  0  0  0  0  0  0  0
   -3.2036    6.9966   11.6521 H   0  0  0  0  0  0  0  0  0  0  0  0
   -5.1674    1.6776   12.0500 C   0  0  0  0  0  0  0  0  0  0  0  0
   -6.2362    0.8734   11.6288 C   0  0  0  0  0  0  0  0  0  0  0  0
   -6.9607    1.1600   10.4556 C   0  0  0  0  0  0  0  0  0  0  0  0
   -6.6411    2.2557    9.6407 C   0  0  0  0  0  0  0  0  0  0  0  0
   -0.8053    8.4778   10.5609 C   0  0  0  0  0  0  0  0  0  0  0  0
   -0.7580    9.7415    9.5226 C   0  0  0  0  0  0  0  0  0  0  0  0
   -1.6187    9.6556    8.4876 C   0  0  0  0  0  0  0  0  0  0  0  0
   -2.4174    8.6176    8.3052 C   0  0  0  0  0  0  0  0  0  0  0  0
   -7.7649    0.4988   10.1593 H   0  0  0  0  0  0  0  0  0  0  0  0
   -7.1635    2.3649    8.7038 H   0  0  0  0  0  0  0  0  0  0  0  0
   -4.7164    1.4700   13.0073 H   0  0  0  0  0  0  0  0  0  0  0  0
   -6.5325    0.0284   12.2371 H   0  0  0  0  0  0  0  0  0  0  0  0
   -1.6954   10.4595    7.7519 H   0  0  0  0  0  0  0  0  0  0  0  0
   -3.0229    8.7425    7.4346 H   0  0  0  0  0  0  0  0  0  0  0  0
   -0.2769    8.5972   11.4965 H   0  0  0  0  0  0  0  0  0  0  0  0
   -0.3336   10.9599    9.1498 H   0  0  0  0  0  0  0  0  0  0  0  0
  1  2  1  0  0  0  0
  1 24  1  0  0  0  0
  3  1  1  0  0  0  0
  4  1  1  0  0  0  0
  4 14  1  0  0  0  0
  5  4  1  0  0  0  0
  6  4  1  0  0  0  0
  7 14  1  0  0  0  0
  7  8  2  0  0  0  0
  8 12  1  0  0  0  0
  8 31  1  0  0  0  0
  9 10  1  0  0  0  0
  9 16  1  0  0  0  0
 11  9  1  0  0  0  0
 12  9  1  0  0  0  0
 13 12  1  0  0  0  0
 14 15  1  0  0  0  0
 16 19  1  0  0  0  0
 16 18  1  0  0  0  0
 17 16  1  0  0  0  0
 19 20  1  0  0  0  0
 19 21  1  0  0  0  0
 22 35  1  0  0  0  0
 23 22  2  0  0  0  0
 24 26  1  0  0  0  0
 24 27  1  0  0  0  0
 25 24  1  0  0  0  0
 27 28  1  0  0  0  0
 27 23  1  0  0  0  0
 29 22  1  0  0  0  0
 29 19  1  0  0  0  0
 30 29  1  0  0  0  0
 31 32  2  0  0  0  0
 31 41  1  0  0  0  0
 32 33  1  0  0  0  0
 32 42  1  0  0  0  0
 33 34  2  0  0  0  0
 33 39  1  0  0  0  0
 34  7  1  0  0  0  0
 34 40  1  0  0  0  0
 35 36  2  0  0  0  0
 35 45  1  0  0  0  0
 36 37  1  0  0  0  0
 36 46  1  0  0  0  0
 37 38  2  0  0  0  0
 37 43  1  0  0  0  0
 38 23  1  0  0  0  0
 38 44  1  0  0  0  0
M  END
