
 OpenBabel11161612073D

 30 31  0  0  0  0  0  0  0  0999 V2000
    3.2537    8.6024   17.7596 N   0  0  0  0  0  0  0  0  0  0  0  0
    0.5730    9.0240   17.6235 N   0  0  0  0  0  0  0  0  0  0  0  0
    4.6024    8.4831   17.7672 C   0  0  0  0  0  0  0  0  0  0  0  0
    5.2114    9.2866   17.3887 H   0  0  0  0  0  0  0  0  0  0  0  0
    5.2044    7.3282   18.2632 C   0  0  0  0  0  0  0  0  0  0  0  0
    6.2829    7.2379   18.2667 H   0  0  0  0  0  0  0  0  0  0  0  0
    4.4021    6.2985   18.7516 C   0  0  0  0  0  0  0  0  0  0  0  0
    3.0120    6.4386   18.7361 C   0  0  0  0  0  0  0  0  0  0  0  0
    2.4113    5.6284   19.1163 H   0  0  0  0  0  0  0  0  0  0  0  0
    0.0425    6.9313   18.6529 C   0  0  0  0  0  0  0  0  0  0  0  0
    0.3250    5.9923   19.1005 H   0  0  0  0  0  0  0  0  0  0  0  0
   -1.3163    7.2433   18.5622 C   0  0  0  0  0  0  0  0  0  0  0  0
   -1.7103    8.4513   17.9888 C   0  0  0  0  0  0  0  0  0  0  0  0
   -2.7584    8.7094   17.9093 H   0  0  0  0  0  0  0  0  0  0  0  0
   -0.7380    9.3329   17.5190 C   0  0  0  0  0  0  0  0  0  0  0  0
   -1.0332   10.2744   17.0756 H   0  0  0  0  0  0  0  0  0  0  0  0
    2.4377    7.6233   18.2242 C   0  0  0  0  0  0  0  0  0  0  0  0
    0.9984    7.8501   18.1680 C   0  0  0  0  0  0  0  0  0  0  0  0
   -2.5440    6.0992   19.1893 S   0  3  0  0  0  0  0  0  0  0  0  0
    5.1457    4.7994   19.3925 S   0  3  0  0  0  0  0  0  0  0  0  0
    4.7472    4.6220   20.8661 O   0  0  0  0  0  0  0  0  0  0  0  0
    4.6598    3.3214   18.6615 O   0  0  0  0  0  0  0  0  0  0  0  0
    3.7533    3.1406   19.0177 H   0  0  0  0  0  0  0  0  0  0  0  0
    6.8608    4.7937   19.4789 O   0  0  0  0  0  0  0  0  0  0  0  0
    7.1579    4.6377   18.5472 H   0  0  0  0  0  0  0  0  0  0  0  0
   -2.4537    4.7439   18.4689 O   0  0  0  0  0  0  0  0  0  0  0  0
   -4.1813    6.5682   18.9555 O   0  0  0  0  0  0  0  0  0  0  0  0
   -4.3558    6.4309   17.9902 H   0  0  0  0  0  0  0  0  0  0  0  0
   -2.3853    5.6911   20.8508 O   0  0  0  0  0  0  0  0  0  0  0  0
   -1.5756    5.1227   20.9009 H   0  0  0  0  0  0  0  0  0  0  0  0
  1 17  1  0  0  0  0
  2 15  2  0  0  0  0
  2 18  1  0  0  0  0
  3  1  2  0  0  0  0
  3  5  1  0  0  0  0
  4  3  1  0  0  0  0
  5  7  2  0  0  0  0
  6  5  1  0  0  0  0
  7  8  1  0  0  0  0
  7 20  1  0  0  0  0
  8  9  1  0  0  0  0
 10 12  1  0  0  0  0
 10 11  1  0  0  0  0
 12 19  1  0  0  0  0
 13 14  1  0  0  0  0
 13 12  2  0  0  0  0
 15 13  1  0  0  0  0
 16 15  1  0  0  0  0
 17 18  1  0  0  0  0
 17  8  2  0  0  0  0
 18 10  2  0  0  0  0
 19 27  1  0  0  0  0
 19 29  1  0  0  0  0
 20 22  1  0  0  0  0
 20 24  1  0  0  0  0
 21 20  2  0  0  0  0
 22 23  1  0  0  0  0
 24 25  1  0  0  0  0
 26 19  2  0  0  0  0
 27 28  1  0  0  0  0
 29 30  1  0  0  0  0
M  CHG  2  19   1  20   1
M  END
